          16
 
C     0.000000000     0.000000000     0.000000000
F     0.000000000     0.000000000     0.000000000
C     0.000000000     0.500000000    -0.500000000
F     0.000000000    -0.500000000     0.500000000
C     0.500000000    -0.500000000     0.000000000
F    -0.500000000     0.500000000     0.000000000
C     0.500000000     0.000000000    -0.500000000
F    -0.500000000     0.000000000     0.500000000
C    -0.500000000     0.000000000    -0.500000000
F     0.500000000     0.000000000     0.500000000
C    -0.500000000     0.500000000    -1.000000000
F     0.500000000    -0.500000000     1.000000000
C     0.000000000    -0.500000000    -0.500000000
F     0.000000000     0.500000000     0.500000000
C     0.000000000     0.000000000    -1.000000000
F     0.000000000     0.000000000     1.000000000
